# generated using pymatgen
data_CrI3
_symmetry_space_group_name_H-M   P3_112
_cell_length_a   6.96854868
_cell_length_b   6.96854868
_cell_length_c   20.75585635
_cell_angle_alpha   90.00000000
_cell_angle_beta   90.00000000
_cell_angle_gamma   120.00000000
_symmetry_Int_Tables_number   151
_chemical_formula_structural   CrI3
_chemical_formula_sum   'Cr6 I18'
_cell_volume   872.88285731
_cell_formula_units_Z   6
loop_
 _symmetry_equiv_pos_site_id
 _symmetry_equiv_pos_as_xyz
  1  'x, y, z'
  2  '-y, x-y, z+1/3'
  3  '-x+y, -x, z+2/3'
  4  '-y, -x, -z+2/3'
  5  '-x+y, y, -z+1/3'
  6  'x, x-y, -z'
loop_
 _atom_type_symbol
 _atom_type_oxidation_number
  Cr3+  3.0
  I-  -1.0
loop_
 _atom_site_type_symbol
 _atom_site_label
 _atom_site_symmetry_multiplicity
 _atom_site_fract_x
 _atom_site_fract_y
 _atom_site_fract_z
 _atom_site_occupancy
  Cr3+  Cr0  3  0.22104815  0.11052407  0.00000000  1
  Cr3+  Cr1  3  0.22260662  0.44521324  0.66666667  1
  I-  I2  6  0.19999063  0.44417362  0.40866700  1
  I-  I3  6  0.20092445  0.08868840  0.25820261  1
  I-  I4  6  0.53183183  0.08792458  0.92434716  1
